Input file: TiAlN_400K_1mm_k2_stripped.RAW  Type: DIFFRAC-PLUS V3
Output file: TiAlN_400K_1mm_k2_stripped.out  Type: PLOTSO
INFO-successful file format conversion
